[General]


[Config configuration1]
network = Configuration1
sim-time-limit = 150s   	#temps de simulation de la premiere simulation
record-eventlog = true  	#permet d'enregistrer les log
**.scalar-recording = true  #permet d'enregistrer les scalaires
**.vector-recording = true	#permet d'enregistrer les vecteurs

[Config configuration2]
network = Configuration2
sim-time-limit = 300s
record-eventlog = true
**.scalar-recording = true
**.vector-recording = true
