[General]

[Config config1 ]
network =Groupe3
sim-time-limit = 150s


[Config config2]
network =Groupe3
sim-time-limit = 300s