[General]

[Config config1 ]
network =Conf1
sim-time-limit = 150s


[Config config2]
network =Conf1 
sim-time-limit = 300s
