[General]
[Config config1 ]
network = Reseau5
sim-time-limit =150s
[Config config2]
network = Reseau5
sim-time-limit =300s

